LAMMPS (2 Aug 2023)
# 1.Initialization
units lj
dimension 3
atom_style atomic
boundary p p p

# 2.System definition
region simbox block -20 20 -20 20 -20 20
create_box 2 simbox
Created orthogonal box = (-20 -20 -20) to (20 20 20)
region  top     block -20 20 -20 20 10 17
region bottom  block -20 20 -20 20 -17 -10
create_atoms 1 random 3000 37458 simbox overlap 0.3
Created 3000 atoms
create_atoms 2 random 3000 43827 simbox overlap 0.3
Created 3000 atoms

# 3.Setting
group oil type 1
3000 atoms in group oil
group water type 2
3000 atoms in group water
mass 1 2.0  # oil
mass 2 3.0  # water
pair_style lj/cut 2.5
pair_coeff 1 1 10.0 1.0          # Water-water
pair_coeff 2 2 10.0 1.0           # Oil-oil
pair_coeff 1 2 1 1.0           # Water-oil (immiscible)
# fix grav_oil oil addforce 0.0 0.0 -1
# fix grav_water water addforce 0.0 0.0 -10

# 4. visualization
thermo 10
thermo_style custom step etotal press

# 5.Run
comm_modify vel yes  # Enable velocity communication for ghost atoms
minimize 1.0e-5 1.0e-6 1000 10000
Generated 0 of 1 mixed pair_coeff terms from geometric mixing rule
Step         TotEng         Press
0   72662.047      27278.52
Averages over the last 51 of 101 rows, steps 500 to 1000:
TotEng Press
-23.0479 -0.0167596
Loop time of 2.71453 on 1 procs for 1000 steps with 6000 atoms

Minimization stats:
  Stopping criterion = max iterations
  Energy initial, next-to-last, final =
  Force two-norm initial, final = 6.2747265e+09 354.37439
  Force max component initial, final = 2.1966656e+09 137.39486
  Final line search alpha, max atom move = 0.00094595605 0.1299695
  Iterations, force evaluations = 1000 1877

# PART B - MOLECULAR DYNAMICS
# 4) Visualization
thermo 50
thermo_style custom step temp etotal pe ke press

# 5) Run
fix mynve all nve
fix mylgv all langevin 2.0 2.0 0.1 10917
timestep 0.005

dump		1 all atom 500 dump.mixture
dump		2 all image 500 image.*.jpg type type 		zoom 1.6 adiam 1.5
dump_modify	2 pad 5

dump		3 all movie 500 movie.mpg type type 		zoom 1.6 adiam 1.5
dump_modify	3 pad 5

run 50000
Generated 0 of 1 mixed pair_coeff terms from geometric mixing rule
Step          Temp          TotEng         PotEng         KinEng         Press
1000   0             -24.115601     -24.115601      0             -0.013210889
Averages over the last 501 of 1001 rows, steps 26000 to 51000:
Temp TotEng PotEng KinEng Press
2.00116 -34.1909 -37.1921 3.00125 -0.000119087
Loop time of 91.9501 on 1 procs for 50000 steps with 6000 atoms
